FoamFile
{
    version     1906;
    format      ascii;
    class       dictionary;
    location    "constant";
    object      element;
}
// >>>>>>>>>>>>>>>>>>>>>>>>>>Hui Cheng>>>>>>>>>>>>>>>>>>>>>>>>>>>>>>> //
{
numOfSurf   320;
e0	( 0	16	1 );
e1	( 17	1	16 );
e2	( 1	17	2 );
e3	( 18	2	17 );
e4	( 2	18	3 );
e5	( 19	3	18 );
e6	( 3	19	4 );
e7	( 20	4	19 );
e8	( 4	20	5 );
e9	( 21	5	20 );
e10	( 5	21	6 );
e11	( 22	6	21 );
e12	( 6	22	7 );
e13	( 23	7	22 );
e14	( 7	23	8 );
e15	( 24	8	23 );
e16	( 8	24	9 );
e17	( 25	9	24 );
e18	( 9	25	10 );
e19	( 26	10	25 );
e20	( 10	26	11 );
e21	( 27	11	26 );
e22	( 11	27	12 );
e23	( 28	12	27 );
e24	( 12	28	13 );
e25	( 29	13	28 );
e26	( 13	29	14 );
e27	( 30	14	29 );
e28	( 14	30	15 );
e29	( 31	15	30 );
e30	( 15	31	0 );
e31	( 16	0	31 );
e32	( 16	32	17 );
e33	( 33	17	32 );
e34	( 17	33	18 );
e35	( 34	18	33 );
e36	( 18	34	19 );
e37	( 35	19	34 );
e38	( 19	35	20 );
e39	( 36	20	35 );
e40	( 20	36	21 );
e41	( 37	21	36 );
e42	( 21	37	22 );
e43	( 38	22	37 );
e44	( 22	38	23 );
e45	( 39	23	38 );
e46	( 23	39	24 );
e47	( 40	24	39 );
e48	( 24	40	25 );
e49	( 41	25	40 );
e50	( 25	41	26 );
e51	( 42	26	41 );
e52	( 26	42	27 );
e53	( 43	27	42 );
e54	( 27	43	28 );
e55	( 44	28	43 );
e56	( 28	44	29 );
e57	( 45	29	44 );
e58	( 29	45	30 );
e59	( 46	30	45 );
e60	( 30	46	31 );
e61	( 47	31	46 );
e62	( 31	47	16 );
e63	( 32	16	47 );
e64	( 32	48	33 );
e65	( 49	33	48 );
e66	( 33	49	34 );
e67	( 50	34	49 );
e68	( 34	50	35 );
e69	( 51	35	50 );
e70	( 35	51	36 );
e71	( 52	36	51 );
e72	( 36	52	37 );
e73	( 53	37	52 );
e74	( 37	53	38 );
e75	( 54	38	53 );
e76	( 38	54	39 );
e77	( 55	39	54 );
e78	( 39	55	40 );
e79	( 56	40	55 );
e80	( 40	56	41 );
e81	( 57	41	56 );
e82	( 41	57	42 );
e83	( 58	42	57 );
e84	( 42	58	43 );
e85	( 59	43	58 );
e86	( 43	59	44 );
e87	( 60	44	59 );
e88	( 44	60	45 );
e89	( 61	45	60 );
e90	( 45	61	46 );
e91	( 62	46	61 );
e92	( 46	62	47 );
e93	( 63	47	62 );
e94	( 47	63	32 );
e95	( 48	32	63 );
e96	( 48	64	49 );
e97	( 65	49	64 );
e98	( 49	65	50 );
e99	( 66	50	65 );
e100	( 50	66	51 );
e101	( 67	51	66 );
e102	( 51	67	52 );
e103	( 68	52	67 );
e104	( 52	68	53 );
e105	( 69	53	68 );
e106	( 53	69	54 );
e107	( 70	54	69 );
e108	( 54	70	55 );
e109	( 71	55	70 );
e110	( 55	71	56 );
e111	( 72	56	71 );
e112	( 56	72	57 );
e113	( 73	57	72 );
e114	( 57	73	58 );
e115	( 74	58	73 );
e116	( 58	74	59 );
e117	( 75	59	74 );
e118	( 59	75	60 );
e119	( 76	60	75 );
e120	( 60	76	61 );
e121	( 77	61	76 );
e122	( 61	77	62 );
e123	( 78	62	77 );
e124	( 62	78	63 );
e125	( 79	63	78 );
e126	( 63	79	48 );
e127	( 64	48	79 );
e128	( 64	80	65 );
e129	( 81	65	80 );
e130	( 65	81	66 );
e131	( 82	66	81 );
e132	( 66	82	67 );
e133	( 83	67	82 );
e134	( 67	83	68 );
e135	( 84	68	83 );
e136	( 68	84	69 );
e137	( 85	69	84 );
e138	( 69	85	70 );
e139	( 86	70	85 );
e140	( 70	86	71 );
e141	( 87	71	86 );
e142	( 71	87	72 );
e143	( 88	72	87 );
e144	( 72	88	73 );
e145	( 89	73	88 );
e146	( 73	89	74 );
e147	( 90	74	89 );
e148	( 74	90	75 );
e149	( 91	75	90 );
e150	( 75	91	76 );
e151	( 92	76	91 );
e152	( 76	92	77 );
e153	( 93	77	92 );
e154	( 77	93	78 );
e155	( 94	78	93 );
e156	( 78	94	79 );
e157	( 95	79	94 );
e158	( 79	95	64 );
e159	( 80	64	95 );
e160	( 96	112	97 );
e161	( 113	97	112 );
e162	( 97	113	98 );
e163	( 114	98	113 );
e164	( 98	114	99 );
e165	( 115	99	114 );
e166	( 99	115	100 );
e167	( 116	100	115 );
e168	( 100	116	101 );
e169	( 117	101	116 );
e170	( 101	117	102 );
e171	( 118	102	117 );
e172	( 102	118	103 );
e173	( 119	103	118 );
e174	( 103	119	104 );
e175	( 120	104	119 );
e176	( 104	120	105 );
e177	( 121	105	120 );
e178	( 105	121	106 );
e179	( 122	106	121 );
e180	( 106	122	107 );
e181	( 123	107	122 );
e182	( 107	123	108 );
e183	( 124	108	123 );
e184	( 108	124	109 );
e185	( 125	109	124 );
e186	( 109	125	110 );
e187	( 126	110	125 );
e188	( 110	126	111 );
e189	( 127	111	126 );
e190	( 111	127	96 );
e191	( 112	96	127 );
e192	( 112	128	113 );
e193	( 129	113	128 );
e194	( 113	129	114 );
e195	( 130	114	129 );
e196	( 114	130	115 );
e197	( 131	115	130 );
e198	( 115	131	116 );
e199	( 132	116	131 );
e200	( 116	132	117 );
e201	( 133	117	132 );
e202	( 117	133	118 );
e203	( 134	118	133 );
e204	( 118	134	119 );
e205	( 135	119	134 );
e206	( 119	135	120 );
e207	( 136	120	135 );
e208	( 120	136	121 );
e209	( 137	121	136 );
e210	( 121	137	122 );
e211	( 138	122	137 );
e212	( 122	138	123 );
e213	( 139	123	138 );
e214	( 123	139	124 );
e215	( 140	124	139 );
e216	( 124	140	125 );
e217	( 141	125	140 );
e218	( 125	141	126 );
e219	( 142	126	141 );
e220	( 126	142	127 );
e221	( 143	127	142 );
e222	( 127	143	112 );
e223	( 128	112	143 );
e224	( 128	144	129 );
e225	( 145	129	144 );
e226	( 129	145	130 );
e227	( 146	130	145 );
e228	( 130	146	131 );
e229	( 147	131	146 );
e230	( 131	147	132 );
e231	( 148	132	147 );
e232	( 132	148	133 );
e233	( 149	133	148 );
e234	( 133	149	134 );
e235	( 150	134	149 );
e236	( 134	150	135 );
e237	( 151	135	150 );
e238	( 135	151	136 );
e239	( 152	136	151 );
e240	( 136	152	137 );
e241	( 153	137	152 );
e242	( 137	153	138 );
e243	( 154	138	153 );
e244	( 138	154	139 );
e245	( 155	139	154 );
e246	( 139	155	140 );
e247	( 156	140	155 );
e248	( 140	156	141 );
e249	( 157	141	156 );
e250	( 141	157	142 );
e251	( 158	142	157 );
e252	( 142	158	143 );
e253	( 159	143	158 );
e254	( 143	159	128 );
e255	( 144	128	159 );
e256	( 144	160	145 );
e257	( 161	145	160 );
e258	( 145	161	146 );
e259	( 162	146	161 );
e260	( 146	162	147 );
e261	( 163	147	162 );
e262	( 147	163	148 );
e263	( 164	148	163 );
e264	( 148	164	149 );
e265	( 165	149	164 );
e266	( 149	165	150 );
e267	( 166	150	165 );
e268	( 150	166	151 );
e269	( 167	151	166 );
e270	( 151	167	152 );
e271	( 168	152	167 );
e272	( 152	168	153 );
e273	( 169	153	168 );
e274	( 153	169	154 );
e275	( 170	154	169 );
e276	( 154	170	155 );
e277	( 171	155	170 );
e278	( 155	171	156 );
e279	( 172	156	171 );
e280	( 156	172	157 );
e281	( 173	157	172 );
e282	( 157	173	158 );
e283	( 174	158	173 );
e284	( 158	174	159 );
e285	( 175	159	174 );
e286	( 159	175	144 );
e287	( 160	144	175 );
e288	( 160	176	161 );
e289	( 177	161	176 );
e290	( 161	177	162 );
e291	( 178	162	177 );
e292	( 162	178	163 );
e293	( 179	163	178 );
e294	( 163	179	164 );
e295	( 180	164	179 );
e296	( 164	180	165 );
e297	( 181	165	180 );
e298	( 165	181	166 );
e299	( 182	166	181 );
e300	( 166	182	167 );
e301	( 183	167	182 );
e302	( 167	183	168 );
e303	( 184	168	183 );
e304	( 168	184	169 );
e305	( 185	169	184 );
e306	( 169	185	170 );
e307	( 186	170	185 );
e308	( 170	186	171 );
e309	( 187	171	186 );
e310	( 171	187	172 );
e311	( 188	172	187 );
e312	( 172	188	173 );
e313	( 189	173	188 );
e314	( 173	189	174 );
e315	( 190	174	189 );
e316	( 174	190	175 );
e317	( 191	175	190 );
e318	( 175	191	160 );
e319	( 176	160	191 );
}
